LTspice 24.0.9 for Windows
Circuit: * D:\project\project\etaj1.asc
Start Time: Thu Jan 16 19:26:56 2025
Warning: Multiple definitions of model "2scr375p" Type: BJT
Warning: Multiple definitions of model "bc857b" Type: BJT
Warning: Multiple definitions of model "bc847c" Type: BJT
Warning: Multiple definitions of model "bc847b" Type: BJT
solver = Normal
Maximum thread count: 12
tnom = 27
temp = 27
method = modified trap
Direct Newton iteration failed to find .op point.  (Use ".option noopiter" to skip.)
Starting Gmin stepping
Gmin = 10
vernier = 0.5
Gmin = 2.07126
vernier = 0.25
vernier = 0.125
vernier = 0.0625
vernier = 0.03125
Gmin = 2.14262
vernier = 0.015625
vernier = 0.0078125
vernier = 0.0104167
Gmin = 2.1273
vernier = 0.0138889
Gmin = 2.06195
vernier = 0.0185185
vernier = 0.0246913
Gmin = 1.95683
vernier = 0.0329218
vernier = 0.0438957
Gmin = 1.8004
vernier = 0.0585276
Gmin = 1.57964
vernier = 0.0780367
vernier = 0.104049
Gmin = 1.26941
vernier = 0.138732
vernier = 0.0693659
vernier = 0.034683
Gmin = 1.05212
vernier = 0.0173415
vernier = 0.00867074
Gmin = 1.02077
vernier = 0.00433537
vernier = 0.00216769
Gmin = 1.01197
vernier = 0.00289025
vernier = 0.00144512
Gmin = 1.00814
vernier = 0.00192683
vernier = 0.000963415
vernier = 0.00128455
Gmin = 1.00587
vernier = 0.000642277
vernier = 0.000856369
vernier = 0.000428184
Gmin = 1.00507
vernier = 0.000570912
vernier = 0.000428184
Gmin = 1.0041
vernier = 0.000570912
vernier = 0.000428184
Gmin = 0
Gmin stepping failed

Starting source stepping with srcstepmethod=0
Source Step = 3.0303%
Source Step = 33.3333%
Source Step = 63.6364%
Source Step = 93.9394%
Source stepping succeeded in finding the operating point.



Total elapsed time: 2.666 seconds.

