LTspice 24.0.9 for Windows
Circuit: * D:\project\project\etaj2.asc
Start Time: Thu Jan 16 23:02:27 2025
solver = Normal
Maximum thread count: 12
tnom = 27
temp = 27
method = modified trap
Direct Newton iteration for .op point succeeded.
Total elapsed time: 0.216 seconds.

