LTspice 24.0.9 for Windows
Circuit: * D:\project\project\etaj4.asc
Start Time: Thu Jan 16 21:54:54 2025
solver = Normal
Maximum thread count: 12
tnom = 27
temp = 27
method = modified trap
Direct Newton iteration failed to find .op point.  (Use ".option noopiter" to skip.)
Starting Gmin stepping
Gmin = 10
Gmin = 1.07374
vernier = 0.5
vernier = 0.25
vernier = 0.125
vernier = 0.0625
Gmin = 1.18726
vernier = 0.0833333
vernier = 0.0416667
vernier = 0.0208333
Gmin = 1.08743
vernier = 0.0104167
Gmin = 1.05679
vernier = 0.0138889
vernier = 0.00694444
vernier = 0.00347222
Gmin = 1.04766
vernier = 0.00462963
vernier = 0.00231481
Gmin = 1.04132
vernier = 0.00308642
vernier = 0.00154321
Gmin = 1.03671
vernier = 0.00205761
vernier = 0.00274348
vernier = 0.00137174
Gmin = 1.03276
vernier = 0.00182899
vernier = 0.000914493
Gmin = 1.0304
vernier = 0.00121932
vernier = 0.00162576
vernier = 0.000812882
Gmin = 1.02808
vernier = 0.00108384
vernier = 0.000541921
Gmin = 1.02654
vernier = 0.000722562
vernier = 0.000963415
vernier = 0.000481708
Gmin = 1.02515
vernier = 0.000642277
Gmin = 1.02372
vernier = 0.000856369
vernier = 0.000428184
vernier = 0.000570912
Gmin = 1.02271
vernier = 0.000761216
vernier = 0.000570912
Gmin = 1.02154
vernier = 0.000428184
vernier = 0.000570912
vernier = 0.000428184
Gmin = 1.02093
vernier = 0.000570912
vernier = 0.000428184
Gmin = 1.02005
vernier = 0.000570912
vernier = 0.000428184
Gmin = 0
Gmin stepping failed

Starting source stepping with srcstepmethod=0
Source Step = 3.0303%
Source Step = 33.3333%
Source Step = 51.5625%
vernier = 0.00390625
Source Step = 51.5418%
Source Step = 51.5714%
Source Step = 51.601%
Source Step = 51.6306%
Source Step = 51.6602%
vernier = 0.00146484
Source Step = 51.6971%
Source Step = 51.7415%
Source Step = 51.7859%
Source Step = 51.8303%
Source Step = 51.8747%
vernier = 0.00219727
Source Step = 51.928%
Source Step = 51.9946%
Source Step = 52.0611%
Source Step = 52.1277%
Source Step = 52.1943%
vernier = 0.0032959
Source Step = 52.2709%
Source Step = 52.3708%
Source Step = 52.4706%
Source Step = 52.5705%
Source Step = 52.6704%
vernier = 0.00494385
Source Step = 52.7802%
Source Step = 52.9301%
Source Step = 53.0799%
Source Step = 53.2297%
Source Step = 53.3795%
vernier = 0.00741577
Source Step = 53.5368%
Source Step = 53.7615%
Source Step = 53.9862%
Source Step = 54.211%
Source Step = 54.4357%
Source Step = 54.6604%
vernier = 0.0111237
Source Step = 54.9975%
Source Step = 55.3346%
Source Step = 55.6716%
Source Step = 56.0087%
Source Step = 56.3458%
vernier = 0.0166855
Source Step = 56.8346%
Source Step = 57.3402%
Source Step = 57.8458%
Source Step = 58.3514%
Source Step = 58.8571%
vernier = 0.0250282
Source Step = 59.5649%
Source Step = 60.3234%
Source Step = 61.0818%
Source Step = 61.8402%
Source Step = 62.5987%
vernier = 0.0375423
Source Step = 63.6225%
Source Step = 64.7602%
Source Step = 65.8978%
Source Step = 67.0355%
Source Step = 68.1731%
vernier = 0.0563135
Source Step = 69.6521%
Source Step = 71.3585%
vernier = 0.0140784
Source Step = 71.2892%
Source Step = 71.3159%
Source Step = 71.3425%
Source Step = 71.3692%
Source Step = 71.3959%
vernier = 0.00131985
Source Step = 71.4252%
Source Step = 71.4652%
Source Step = 71.5052%
Source Step = 71.5452%
Source Step = 71.5852%
vernier = 0.00197977
Source Step = 71.6272%
Source Step = 71.6872%
Source Step = 71.7472%
Source Step = 71.8071%
Source Step = 71.8671%
Source Step = 71.9271%
vernier = 0.00296966
Source Step = 72.0171%
Source Step = 72.1071%
Source Step = 72.1971%
Source Step = 72.2871%
Source Step = 72.3771%
vernier = 0.00445449
Source Step = 72.5076%
Source Step = 72.6425%
Source Step = 72.7775%
Source Step = 72.9125%
Source Step = 73.0475%
vernier = 0.00668173
Source Step = 73.2365%
Source Step = 73.439%
Source Step = 73.6414%
Source Step = 73.8439%
Source Step = 74.0464%
vernier = 0.0100226
Source Step = 74.3197%
Source Step = 74.6234%
Source Step = 74.9272%
Source Step = 75.2309%
Source Step = 75.5346%
vernier = 0.0150339
Source Step = 75.9294%
Source Step = 76.385%
Source Step = 76.8406%
Source Step = 77.2961%
Source Step = 77.7517%
vernier = 0.0225508
Source Step = 78.3212%
Source Step = 79.0045%
Source Step = 79.6879%
Source Step = 80.3713%
Source Step = 81.0546%
vernier = 0.0338263
Source Step = 81.8746%
Source Step = 82.8997%
Source Step = 83.9247%
Source Step = 84.9498%
Source Step = 85.9748%
vernier = 0.0507394
Source Step = 87.1536%
Source Step = 88.6911%
Source Step = 90.2287%
Source Step = 91.7663%
Source Step = 93.3038%
vernier = 0.0761091
Source Step = 94.9951%
Source Step = 97.3015%
Source Step = 99.6078%
Source stepping succeeded in finding the operating point.

Total elapsed time: 11.530 seconds.

